/*--------------------------------*- C++ -*----------------------------------*\
| =========                 |                                                 |
| \\      /  F ield         | OpenFOAM: The Open Source CFD Toolbox           |
|  \\    /   O peration     | Version:  1912                                  |
|   \\  /    A nd           | Website:  www.openfoam.com                      |
|    \\/     M anipulation  |                                                 |
\*---------------------------------------------------------------------------*/
FoamFile
{
    version     2.0;
    format      ascii;
    class       polyBoundaryMesh;
    location    "constant/polyMesh";
    object      boundary;
}
// * * * * * * * * * * * * * * * * * * * * * * * * * * * * * * * * * * * * * //

5
(
    top
    {
        type            wall;
        inGroups        1(wall);
        nFaces          150;
        startFace       7325;
    }
    interface
    {
        type            wall;
        inGroups        1(wall);
        nFaces          150;
        startFace       7475;
    }
    inlet
    {
        type            inletOutlet;
        nFaces          25;
        startFace       7625;
        faces           ( ( 0 4 7 3 ) );
    }
    outlet
    {
        type            inletOutlet;
        nFaces          25;
        startFace       7650;
        faces           ( ( 2 6 5 1 ) );
    }
    frontAndBack
    {
        type            empty;
        inGroups        1(empty);
        nFaces          7500;
        startFace       7675;
    }
)

// ************************************************************************* //
