FoamFile
{
    version     2.0;
    format      ascii;
    class       dictionary;
    location    "system";
    object      preciceDict;
}

preciceConfig "precice-config.xml";

participant Solid;

modules (CHT);

CHT
{
    k	[1 1 -3 -1 0 0 0]	100;
    solverType	"basic";
}

interfaces
{
  Interface1
  {
    mesh              Solid-Mesh;
    patches           (interface);
    
    readData
    (
      Temperature
    );
    
    writeData
    (
      Heat-Flux
    );
  };
};
