/*--------------------------------*- C++ -*----------------------------------*\
| =========                 |                                                 |
| \\      /  F ield         | OpenFOAM: The Open Source CFD Toolbox           |
|  \\    /   O peration     | Version:  5                                     |
|   \\  /    A nd           | Web:      www.OpenFOAM.org                      |
|    \\/     M anipulation  |                                                 |
\*---------------------------------------------------------------------------*/
FoamFile
{
    version     2.0;
    format      ascii;
    class       dictionary;
    location    "system";
    object      fvSolution;
}
// * * * * * * * * * * * * * * * * * * * * * * * * * * * * * * * * *

solvers
{
    T
    {
        solver          	GAMG;
        tolerance       	1e-15;
        relTol          	0;
        smoother		GaussSeidel;
	cacheAgglomeration	true;
	nCellsInCoarsestLevel	10;
	agglomerator		faceAreaPair;
	mergeLevels		1;
	minIter			2;
	maxIter			50;
    }
}

SIMPLE
{
    nNonOrthogonalCorrectors 0;
}

relaxationFactors
{
	T	1.0;
}


// ************************************************************************* //
