/*--------------------------------*- C++ -*----------------------------------*\
| =========                 |                                                 |
| \\      /  F ield         | foam-extend: Open Source CFD                    |
|  \\    /   O peration     | Version:     4.1                                |
|   \\  /    A nd           | Web:         http://www.foam-extend.org         |
|    \\/     M anipulation  |                                                 |
\*---------------------------------------------------------------------------*/
FoamFile
{
    version     2.0;
    format      ascii;
    class       polyBoundaryMesh;
    location    "constant/polyMesh";
    object      boundary;
}
// * * * * * * * * * * * * * * * * * * * * * * * * * * * * * * * * * * * * * //

5
(
    top
    {
        type            wall;
        nFaces          150;
        startFace       7325;
    }
    bottom
    {
        type            regionCouple;
        nFaces          150;
        startFace       7475;
        shadowRegion    solid;
        shadowPatch     top;
        zone            bottomZone;
        attached        off;
        master          on;
        isWall          on;
        bridgeOverlap   off;
    }
    left
    {
        type            wall;
        nFaces          25;
        startFace       7625;
    }
    right
    {
        type            wall;
        nFaces          25;
        startFace       7650;
    }
    frontAndBack
    {
        type            empty;
        nFaces          7500;
        startFace       7675;
    }
)


// ************************************************************************* //
